Circuit: * C:\Users\vassi\OneDrive\Bureau\Cours\BA3\PCB_design\PCB\LTSPICE_Simulations\Draft1.asc

.OP point found by inspection.

Date: Wed Apr 24 00:31:52 2024
Total elapsed time: 0.058 seconds.

tnom = 27
temp = 27
method = trap
totiter = 0
traniter = 0
tranpoints = 0
accept = 0
rejected = 0
matrix size = 3
fillins = 0
solver = Normal
Avg thread counts: 4.0/0.0/0.0/1.3
Matrix Compiler1:       4 opcodes
Matrix Compiler2:      15 opcodes
